LTspice 24.0.12 for Windows
Circuit: * C:\Users\tudor\Desktop\New folder\LTspice\circuit_LTspice.asc
Start Time: Fri Jul 12 02:55:37 2024
c2: both pins shorted together -- ignoring.
c5: both pins shorted together -- ignoring.
solver = Normal
Maximum thread count: 4
tnom = 27
temp = 27
method = modified trap
c35: Increased Cpar to 1e-10
WARNING: Node NC_04 is floating.
WARNING: Node NC_05 is floating.

WARNING: Less than two connections to node nc_04.  This node is used by c31.
WARNING: Less than two connections to node nc_05.  This node is used by c33.
Direct Newton iteration failed to find .op point.  (Use ".option noopiter" to skip.)
Starting Gmin stepping
Gmin = 10
Gmin = 1.07374
Gmin = 0.115292
Gmin = 0.0123794
Gmin = 0.00132923
Gmin = 0.000142725
Gmin = 1.5325e-05
Gmin = 1.6455e-06
Gmin = 1.76685e-07
Gmin = 1.89714e-08
Gmin = 2.03704e-09
Gmin = 2.18725e-10
Gmin = 2.34854e-11
Gmin = 2.52173e-12
Gmin = 2.70769e-13
Gmin = 0
Gmin stepping succeeded in finding the operating point.

Heightened Def Con from 0.174309 to 0.174309
Total elapsed time: 11.750 seconds.

